%%%%%%%%%%%%%%%%%%%%%%%%%%%%%%%%%%%%%%%%%%%%%%%%%%%%%%%%%%%%%%%%%%%%%%%%%%%%%%%%
% SU2 configuration file                                                       %
% Case description: 3D beam with thermal expansion                             %
% File Version 8.4.0 "Harrier"                                                 %
%%%%%%%%%%%%%%%%%%%%%%%%%%%%%%%%%%%%%%%%%%%%%%%%%%%%%%%%%%%%%%%%%%%%%%%%%%%%%%%%

SOLVER= ELASTICITY
GEOMETRIC_CONDITIONS= LARGE_DEFORMATIONS
MATERIAL_MODEL= NEO_HOOKEAN
MESH_FILENAME= ../StatBeam_3d/meshBeam_3d.su2
ELASTICITY_MODULUS= 3E7
POISSON_RATIO= 0.3
MATERIAL_THERMAL_EXPANSION_COEFF= 2e-5
MATERIAL_REFERENCE_TEMPERATURE= 288.15
MATERIAL_DENSITY= 7854
MARKER_CLAMPED= ( left, right )
MARKER_PRESSURE= ( lower, 0, symleft, 0, symright, 0 )
MARKER_LOAD= ( upper, 1, 1000, 0, -1, 0 )
DISCADJ_LIN_SOLVER= FGCRODR
DISCADJ_LIN_PREC= ILU
LINEAR_SOLVER_ERROR= 1E-4
LINEAR_SOLVER_ITER= 1000
LINEAR_SOLVER_RESTART_FREQUENCY= 50
LINEAR_SOLVER_RESTART_DEFLATION= 10
MESH_FORMAT= SU2
TABULAR_FORMAT= CSV
CONV_FILENAME= history_beam
VOLUME_FILENAME= beam
RESTART_FILENAME= restart_beam
SOLUTION_FILENAME= restart_beam

CONV_FIELD= REL_ADJOINT_DISP_X, REL_RMS_ADJ_TEMPERATURE
CONV_STARTITER= 0
CONV_RESIDUAL_MINVAL= -5
INNER_ITER= 15

% Coupling with heat solver.
WEAKLY_COUPLED_HEAT_EQUATION= YES
FREESTREAM_TEMPERATURE= 300
SPECIFIC_HEAT_CP= 460
THERMAL_CONDUCTIVITY_CONSTANT= 45

% Copy markers to allow specifying boundary conditions for both solvers on the
% same markers.
MARKER_CREATE_COPY= ( left, left_heat, right, right_heat )
MARKER_ISOTHERMAL= ( left_heat, 400, right_heat, 300 )

NUM_METHOD_GRAD= GREEN_GAUSS
TIME_DISCRE_HEAT= EULER_IMPLICIT
CFL_NUMBER= 1e8

MARKER_MONITORING= ( left_heat )
SCREEN_OUTPUT= INNER_ITER, RMS_RES, LINSOL, SENSITIVITY

OBJECTIVE_FUNCTION = TOTAL_HEATFLUX
