%%%%%%%%%%%%%%%%%%%%%%%%%%%%%%%%%%%%%%%%%%%%%%%%%%%%%%%%%%%%%%%%%%%%%%%%%%%%%%%%
%                                                                              %
% SU2 configuration file                                                       %
% Case description: Backward-Facing Step                                       % 
% Author: Angelo Passariello                                                   %
% Institution: Italian Aerospace Research Centre (CIRA)                        %
%              University of Naples Federico II                                %
% Date: 2026.03.16                                                             %
% File Version 8.3.0 "Harrier"                                                 %
%                                                                              %
%%%%%%%%%%%%%%%%%%%%%%%%%%%%%%%%%%%%%%%%%%%%%%%%%%%%%%%%%%%%%%%%%%%%%%%%%%%%%%%%

% ------------- DIRECT, ADJOINT, AND LINEARIZED PROBLEM DEFINITION ------------%

SOLVER= INC_RANS
KIND_TURB_MODEL= SA
MATH_PROBLEM= DIRECT
RESTART_SOL= NO 

% ----------- HYBRID RANS-LES SIMULATION --------------------------------------%

HYBRID_RANSLES= SA_DDES
DES_CONST= 0.65

% ------------ STOCHASTIC BACKSCATTER MODEL DEFINITION ------------------------%

STOCHASTIC_BACKSCATTER= YES 
SBS_LENGTHSCALE_COEFF= 0.02 
SBS_MAX_ITER_SMOOTH= 100
SBS_TIMESCALE_COEFF= 0.05
SBS_INTENSITY_COEFF= 1.0
SBS_FD_LOWER_THRESHOLD= 0.9
SBS_RELAXATION_FACTOR= 0.0
SBS_SOURCE_NU_EQUATION= YES
SBS_SOURCE_DIAGNOSTICS= NO
SBS_IN_BOX= YES
SBS_BOX_BOUNDS= ( -0.001, 0.025, -5000.0, 5000.0, -5000.0, 0.0375 )


% ----------- INCOMPRESSIBLE FREE-STREAM DEFINITION ---------------------------%

INC_DENSITY_INIT= 1.183
INC_VELOCITY_INIT= ( 44.316, 0.0, 0.0 )
INC_TEMPERATURE_INIT= 298.333
INC_ENERGY_EQUATION= NO
INC_NONDIM= DIMENSIONAL	 
REYNOLDS_LENGTH= 0.0125
VISCOSITY_MODEL= CONSTANT_VISCOSITY
MU_CONSTANT= 1.820E-5

% ---------------------- REFERENCE VALUE DEFINITION ---------------------------%

REF_LENGTH= 1.0
REF_AREA= 1.0

% ------------------------- UNSTEADY SIMULATION -------------------------------%

TIME_DOMAIN= YES 
TIME_MARCHING= DUAL_TIME_STEPPING-2ND_ORDER
TIME_STEP= 2.82E-6
INNER_ITER= 20
TIME_ITER= 50000
UNST_CFL_NUMBER= 0.0

% -------------------- BOUNDARY CONDITION DEFINITION --------------------------%

MARKER_HEATFLUX= ( WALL_TOP, 0.0, WALL_BOTTOM, 0.0 )
INC_INLET_TYPE= VELOCITY_INLET
MARKER_INLET= ( INLET, 298.333, 44.316, 1.0, 0.0, 0.0 )
INC_OUTLET_TYPE= PRESSURE_OUTLET
MARKER_OUTLET= ( OUTLET, 500.0 )
MARKER_SYM= ( SYMMETRY_TOP, SYMMETRY_BOTTOM )
MARKER_PERIODIC= ( Y-2, Y2, 0.0, 0.0, 0.0, 0.0, 0.0, 0.0, 0.0, 0.05, 0.0)
MARKER_PLOTTING= ( WALL_BOTTOM )

% ------------- COMMON PARAMETERS DEFINING THE NUMERICAL METHOD ---------------%

NUM_METHOD_GRAD= GREEN_GAUSS
CFL_NUMBER= 2.0
CFL_ADAPT= NO
RK_ALPHA_COEFF= ( 0.66667, 0.66667, 1.000000 )

% ----------------------- SLOPE LIMITER DEFINITION ----------------------------%

MUSCL_FLOW= NO 
MUSCL_TURB= NO 

% -------------------- FLOW NUMERICAL METHOD DEFINITION -----------------------%
%
%
CONV_NUM_METHOD_FLOW= LD2 
JST_SENSOR_COEFF= ( 0.0, 0.002 )
TIME_DISCRE_FLOW= EULER_IMPLICIT

% -------------------- TURBULENT NUMERICAL METHOD DEFINITION ------------------%
%
CONV_NUM_METHOD_TURB= SCALAR_UPWIND
TIME_DISCRE_TURB= EULER_IMPLICIT

% --------------------------- CONVERGENCE PARAMETERS --------------------------%
%
CONV_RESIDUAL_MINVAL= -15
CONV_STARTITER= 0
CONV_CAUCHY_ELEMS= 100
CONV_CAUCHY_EPS= 1E-6

% ------------------------- INPUT/OUTPUT INFORMATION --------------------------%
%
MESH_FILENAME= backward_step
TABULAR_FORMAT= CSV
CONV_FILENAME= history
RESTART_FILENAME= restart_flow
VOLUME_FILENAME= flow
VOLUME_OUTPUT= ( COORDINATES, SOLUTION, PRIMITIVE, LES_SENSOR, VORTEX_IDENTIFICATION, TIME_AVERAGE, BACKSCATTER, DES_LENGTHSCALE)
HISTORY_OUTPUT= (ITER, RMS_PRESSURE, RMS_VELOCITY-X, RMS_VELOCITY-Y, RMS_VELOCITY-Z, RMS_NU_TILDE, RMS_STOCH_VAR-X, RMS_STOCH_VAR-Y, RMS_STOCH_VAR-Z)
SCREEN_OUTPUT= (ITER, RMS_PRESSURE, RMS_VELOCITY-X, RMS_VELOCITY-Y, RMS_VELOCITY-Z, RMS_NU_TILDE, RMS_STOCH_VAR-X, RMS_STOCH_VAR-Y, RMS_STOCH_VAR-Z)
HISTORY_WRT_FREQ_INNER= 10
SCREEN_WRT_FREQ_INNER= 10
OUTPUT_WRT_FREQ= 1000
OUTPUT_FILES= (RESTART, PARAVIEW, SURFACE_PARAVIEW)
