%%%%%%%%%%%%%%%%%%%%%%%%%%%%%%%%%%%%%%%%%%%%%%%%%%%%%%%%%%%%%%%%%%%%%%%%%%%%%%%%
%                                                                              %
% SU2 configuration file                                                       %
% Case description: Turbofan with outlets-to-inlet mass-flow rate coupling___  %
% Author: Angelo Passariello and Mauro Minervino_____________________________  %
% Institution: Italian Aerospace Research Centre (CIRA)______________________  %
% Date: 16/03/2026                                                             %
% File Version 8.5.0 "Harrier"                                                 %
%                                                                              %
%%%%%%%%%%%%%%%%%%%%%%%%%%%%%%%%%%%%%%%%%%%%%%%%%%%%%%%%%%%%%%%%%%%%%%%%%%%%%%%%

% ------------- DIRECT, ADJOINT, AND LINEARIZED PROBLEM DEFINITION ------------%
%
SOLVER= EULER
MATH_PROBLEM= DIRECT
RESTART_SOL= NO
%
% ------------------------------- SOLVER CONTROL ------------------------------%
%
ITER= 10000
CONV_FIELD= RMS_DENSITY
CONV_RESIDUAL_MINVAL= -15
CONV_STARTITER= 10
%
% -------------------- COMPRESSIBLE FREE-STREAM DEFINITION --------------------%
%
MACH_NUMBER= 0.16719966920674
AOA= 0.0
INIT_OPTION= TD_CONDITIONS
FREESTREAM_OPTION= DENSITY_FS
FREESTREAM_PRESSURE= 101325.0
FREESTREAM_TEMPERATURE= 288.15
REYNOLDS_NUMBER= 3.8951057985067e+6
FREESTREAM_DENSITY= 1.225
FREESTREAM_VELOCITY= ( 56.897550640000, 0.0, 0.0 )
FREESTREAM_VISCOSITY= 1.78938027807758E-05
REF_DIMENSIONALIZATION= DIMENSIONAL
%
% ---------------------- REFERENCE VALUE DEFINITION ---------------------------%
%
% Reference origin for moment computation (m or in)
REF_ORIGIN_MOMENT_X = 0.00
REF_ORIGIN_MOMENT_Y = 0.00
REF_ORIGIN_MOMENT_Z = 0.00
REF_LENGTH= 1.0
REF_AREA= 1.0
SEMI_SPAN= 1.0
%
% -------------------- BOUNDARY CONDITION DEFINITION --------------------------%
%
MARKER_EULER= ( INTAKE, NOZZLE_TE, PLUG_TE, PLUG, NACELLE_TE, SPINNER, LIP, NOZZLE_INNER, NOZZLE, NACELLE_INNER, COWL )
MARKER_FAR= ( FF )
ENGINE_INFLOW_TYPE= FAN_FACE_MDOT
ENGINE_EXHAUST_TO_INLET= YES
DAMP_ENGINE_INFLOW= 0.01
MARKER_ENGINE_INFLOW= ( FAN_IN, 140.0 )
MARKER_ENGINE_EXHAUST= ( FAN_OUT, 289.761088684333, 103321.726628227, CORE_OUT, 289.761088684333, 103321.726628227 )
%
% ------------------------ SURFACES IDENTIFICATION ----------------------------%
%
MARKER_PLOTTING = ( NOZZLE_TE, PLUG_TE, PLUG, NACELLE_TE, SPINNER, LIP, INTAKE, NOZZLE_INNER, NOZZLE, NACELLE_INNER, COWL, FAN_IN, FAN_OUT, CORE_OUT )
MARKER_MONITORING = ( NACELLE_TE, LIP, COWL )
MARKER_ANALYZE = ( FAN_IN, FAN_OUT, CORE_OUT )
MARKER_ANALYZE_AVERAGE = MASSFLUX
%
% ------------- COMMON PARAMETERS DEFINING THE NUMERICAL METHOD ---------------%
%
NUM_METHOD_GRAD= GREEN_GAUSS
NUM_METHOD_GRAD_RECON = GREEN_GAUSS
CFL_NUMBER= 1.0
%
% ----------- SLOPE LIMITER AND DISSIPATION SENSOR DEFINITION -----------------%
%
MUSCL_FLOW= NO
MUSCL_TURB= YES
%
% ------------------------ LINEAR SOLVER DEFINITION ---------------------------%
%
LINEAR_SOLVER= FGMRES
LINEAR_SOLVER_ITER= 5
%
% -------------------- FLOW NUMERICAL METHOD DEFINITION -----------------------%
%
CONV_NUM_METHOD_FLOW= JST
LOW_MACH_PREC= YES
ENTROPY_FIX_COEFF= 0.001
%
% ------------------------- SCREEN/HISTORY VOLUME OUTPUT --------------------------%
%
SCREEN_OUTPUT= (INNER_ITER, RMS_DENSITY, LIFT, DRAG, SURFACE_MASSFLOW)
HISTORY_OUTPUT= (ITER, AERO_COEFF, RMS_RES, AOA, NONPHYSICAL_POINTS, SURFACE_MASSFLOW, SURFACE_STATIC_PRESSURE)
VOLUME_OUTPUT= (COORDINATES, SOLUTION, PRIMITIVE)
OUTPUT_WRT_FREQ= 1000
WRT_FORCES_BREAKDOWN= YES
%
% ------------------------- INPUT/OUTPUT FILE INFORMATION --------------------------%
%
SURFACE_FILENAME= surface_flow
VOLUME_FILENAME= flow
RESTART_FILENAME= restart_flow.dat
MESH_FILENAME= engine-alone.cgns
MESH_FORMAT= CGNS
TABULAR_FORMAT= TECPLOT
OUTPUT_FILES= (RESTART, TECPLOT, SURFACE_TECPLOT)
READ_BINARY_RESTART= YES
REORIENT_ELEMENTS= YES
