% ------------------------------- SOLVER -------------------------------- %
%
SOLVER= RANS
KIND_TURB_MODEL= SA
REF_DIMENSIONALIZATION= FREESTREAM_VEL_EQ_MACH
%
OBJECTIVE_FUNCTION= LIFT
%
% ----------------------------- FREESTREAM ------------------------------ %
%
MACH_NUMBER= 0.17
AOA= 5.5
INIT_OPTION= REYNOLDS
FREESTREAM_OPTION= TEMPERATURE_FS
FREESTREAM_TEMPERATURE= 295.56
REYNOLDS_NUMBER= 1.71E6
REYNOLDS_LENGTH= 0.4572
%
% -------------------------- REFERENCE VALUES --------------------------- %
%
REF_AREA= 0.4572
REF_LENGTH= 0.4572
REF_ORIGIN_MOMENT_X= 0.0
REF_ORIGIN_MOMENT_Y= 0.0
REF_ORIGIN_MOMENT_Z= 0.0
%
% ------------------------- BOUNDARY CONDITIONS ------------------------- %
%
MARKER_HEATFLUX= ( wall, 0.0 )
MARKER_FAR= ( farfield )
MARKER_PLOTTING= ( wall )
MARKER_MONITORING= ( wall )
%
% ---------------------------- FLUID MODELS ----------------------------- %
%
FLUID_MODEL= STANDARD_AIR
GAMMA_VALUE= 1.4
GAS_CONSTANT= 287.058
%
VISCOSITY_MODEL= SUTHERLAND
MU_REF= 1.716E-5
MU_T_REF= 273.15
SUTHERLAND_CONSTANT= 110.4
%
CONDUCTIVITY_MODEL= CONSTANT_PRANDTL
PRANDTL_LAM= 0.72
PRANDTL_TURB= 0.90
%
% ----------------------- SPATIAL DISCRETIZATION ------------------------ %
%
NUM_METHOD_GRAD= GREEN_GAUSS
CONV_NUM_METHOD_FLOW= ROE
ENTROPY_FIX_COEFF= 1e-5
MUSCL_FLOW= YES
SLOPE_LIMITER_FLOW= VAN_ALBADA_EDGE
%
CONV_NUM_METHOD_TURB= SCALAR_UPWIND
MUSCL_TURB= NO
%
% ---------- PSEUDOTIME INTEGRATION / CONVERGENCE ACCELERATION ---------- %
%
TIME_DISCRE_FLOW= EULER_IMPLICIT
TIME_DISCRE_TURB= EULER_IMPLICIT
%
CFL_NUMBER= 2500
CFL_REDUCTION_TURB= 1
CFL_ADAPT= NO
%
DISCADJ_LIN_SOLVER= SMOOTHER
DISCADJ_LIN_PREC= ILU
LINEAR_SOLVER_ERROR= 1e-30
LINEAR_SOLVER_ITER= 20
LINEAR_SOLVER_SMOOTHER_RELAXATION= 0.6
%
MGLEVEL= 0
%
% Adjoint GMRES settings.
MULTIZONE= YES
NEWTON_KRYLOV= YES
QUASI_NEWTON_NUM_SAMPLES= 999
% Acts as the restart frequency.
INNER_ITER= 30
% This should be ~1/4 of the restart frequency. After the first outer
% iteration, the solver does "frequency - deflation" inner iterations.
LINEAR_SOLVER_RESTART_DEFLATION= 5
%
% ------------------------ CONVERGENCE CRITERIA ------------------------- %
%
OUTER_ITER= 10
CONV_RESIDUAL_MINVAL= -8
%
% --------------------------- INPUT / OUTPUT ---------------------------- %
%
MESH_FILENAME= 2D_L1_coarse_r1.su2
MESH_FORMAT= SU2
RESTART_SOL= NO
OUTPUT_WRT_FREQ= 1000
SCREEN_WRT_FREQ_INNER= 1
WRT_AD_STATISTICS= NO
WRT_ZONE_CONV= NO
WRT_ZONE_HIST= YES
HISTORY_OUTPUT= ( ITER, RMS_RES, LINSOL, SENSITIVITY )
SCREEN_OUTPUT= ( OUTER_ITER, ITER_TIME, RMS_RES[0], LINSOL_RESIDUAL[0], LINSOL_RESIDUAL_TURB[0], SENS_AOA[0], SENS_MACH[0] )
